11
Generated by mindlessgen-v0.2.1.dev3+gd4d6843.d20240816
H       -3.1335518    0.1279655   -1.2790601
H        2.3261377    1.2547696    1.7959532
C       -2.0242987    1.7669493    1.6269009
N       -1.6361585    2.5664151    0.8598426
O        2.4588492   -1.2188001   -0.5282516
O       -0.2279673   -0.5402669   -0.0180991
Te       3.8191521   -0.2187525   -1.7303835
Te       0.5820132    1.6549106   -2.2064228
Er       0.8672935   -1.4110390   -2.4259122
Lu      -1.6025688    0.7605112   -0.4045139
Lu       1.5930404    0.4856149    0.3139204
