120
Total charge: -2 ; Unpaired electrons: 0 ; Generated by mindlessgen-v0.3.1.dev52+g2a0b67d
O        0.7803931   -0.3576162   -1.8632951
O        4.6934361    1.7028175    2.2681607
O       -4.6737689    1.8305843   -2.0452589
O       -1.8818634   -0.5189199    5.1608008
O       -3.1175964   -2.2457606    1.7563129
O        3.7069809    3.7342787    0.1982933
O       -0.9068107   -0.3091013   -6.2974574
O       -3.0724715    0.1209780    4.4472765
O       -0.5434705   -4.5999743   -0.4459179
O        2.5458776   -5.0427790   -5.7449335
O       -0.9523225    3.5321424    5.0502144
O       -0.4854439   -2.6878002   -3.1688468
O        4.1151186   -5.9387604   -0.9747035
O       -0.9414441   -0.5072837   -4.8484203
O       -1.2294828    2.7307124    3.7740558
O        6.0298085    1.9209685   -5.1687729
O        3.3527951    1.7275531    6.1889491
O        3.9531229   -6.2739178    0.4149366
O       -1.9195468   -1.1029578   -6.9377047
O       -1.9091752    0.6028618    0.1475116
O        1.2371554    1.4408439    2.3095329
O       -5.3892808   -0.7187329    0.0383730
O       -3.2836942    2.0560315   -4.6707731
O        5.2137373    0.2947195   -3.6677215
O       -1.6248674   -2.4219949    1.9359275
O        6.0014216    0.5154497   -4.8830009
O       -0.8884591   -6.4718659    0.9760046
O        7.3106713   -0.1227835    1.9690547
O       -2.0811580   -3.9477369   -4.3881403
O       -2.2703418    3.7910298   -1.2914180
O       -0.5127253    2.3879458   -3.3069216
O        1.3076473   -2.7489007    1.8547900
O        2.2062980   -0.9661315    4.2723277
O        2.6380682    5.7251003   -1.6999471
O       -2.2087860    0.4233427   -1.2759472
O        5.1476938   -2.7410872   -3.2580571
O        3.0582206    4.3836861    1.3674664
O        0.9937905    1.3808801    0.8363580
O        3.0993693    2.8957546   -3.2985383
O       -3.8311450    3.5378890    1.5718526
O        3.0519966    2.3242751    4.8297946
O        3.2165796   -1.5332287   -0.7425610
O        0.6881709    3.4857680   -0.6887264
O        2.7229000   -2.8943725   -3.3308358
O        2.8146503   -5.6293964   -1.5732443
O        4.8827122   -2.0781191    2.3291747
O        2.2553031   -0.0058920   -4.8288110
O        5.3667130    1.0056006   -0.6871406
O       -0.6880266   -3.7135007   -4.1758221
O        3.9495148   -2.6890299   -4.0770344
O       -3.8091198    4.5883948    2.6789074
O       -0.6808155   -6.0559249   -0.3916416
O       -0.4488910    5.7016772    1.7765687
O       -4.3307233   -0.9931439   -3.4453413
O        4.6776971   -1.7210316   -0.6253853
O       -3.8259837   -4.0850818   -0.9800935
O       -4.9963973    5.3917893   -3.1956084
O        4.2585255   -2.9433952   -7.0550247
O        1.9314539    6.3907275   -0.5709289
O        1.6528781   -3.9599660    2.7313757
Na      -3.1360702   -0.6185984   -5.2571106
Na       3.9419939    1.3182183   -4.9206911
Na      -0.2159212   -4.0703207    1.5553912
Na      -4.3937834    3.8639704   -4.3942886
Na      -0.0729702    1.4876913   -1.3549488
Na      -2.7251674   -1.8708816    3.7761726
Na       1.3955401    1.8510360   -3.8007788
Na      -1.1632445    1.5262910   -5.1481319
Na      -3.8458187    2.4106750   -0.0750406
Na       3.8389407    5.7510556   -0.0090892
Na       6.5211188   -1.5295859    3.3735782
Na      -3.1246689    5.5761805   -2.2862400
Na      -1.7254216    1.5593804    5.4871148
Na      -2.5627534   -5.3392425    0.2290138
Na       3.1332935   -4.6979130   -7.7402787
Na       6.1913364   -2.8250018    0.2638527
Na      -1.2103310   -4.7010641   -2.4554801
Na      -3.4012652    2.5418650    3.2639851
Na       4.9467526   -1.4148991   -5.4240598
Na      -4.8692217   -2.7037720    0.4124955
Na       4.1062742   -4.1143481   -2.1482560
Na      -1.6209233   -0.6586519   -2.8311151
Na       6.6625930    1.6047037    3.1068174
Na      -1.6167011    4.8141830    3.3779283
Na       1.6868351   -5.9687610    0.1811896
Na      -0.9385683   -2.4482260   -5.6828140
Na       3.7416754   -1.1871869   -2.7568377
Na      -3.7006434   -3.0326720   -3.1202737
Na       3.2241296   -2.7291131    3.7402994
Na       2.7785048    2.3587314    1.3835440
In       3.4448168   -3.5224335    0.9197096
In       1.5493135   -5.1500569   -3.6674448
In      -5.6554578    4.1271175   -1.6194349
In      -4.2958480   -0.2072168   -1.5559120
In       5.8456661    2.8888541    0.5262238
In       4.2457579    0.2014055    4.4246634
In      -0.3615857    4.4789327   -2.4972823
In       0.0652811   -0.9089517    0.3948151
In       1.3519436   -3.0425885   -1.2539976
In       1.1631254    0.8842293    5.1568482
In      -3.7688389    0.0224422    1.6556540
In      -2.6972786    5.3732966    0.6203196
In      -0.9391287    0.3606478    2.8947956
In       1.0302971    3.4744149    3.4574657
In       2.7098398    0.7294856   -0.9319516
In      -2.5142171    2.2485491   -2.6528350
In       2.1435117   -2.5822936   -6.0802210
In       5.3737068    2.5774229   -2.6756683
In       2.5702058   -0.5219845    1.8873317
In       4.8486513   -4.5297511   -5.4520418
In       4.3777948    3.6302347    3.4214885
In       0.9897591    4.9341988    0.7141077
In       0.2538958   -2.2668390    3.9095675
In      -1.1129218    2.7554064    0.9806631
In      -5.3150557    1.0462459   -4.2161935
In       2.4822324    3.5670342   -1.5738240
In       1.0311482   -1.0537385   -3.7022894
In       5.3388706   -0.1455636    1.1539998
In       6.4094665   -0.7575708   -1.8999523
In      -2.1988080   -2.5418003   -0.6245867
