12
Total charge: 4 ; Unpaired electrons: 0 ; Generated by mindlessgen-v0.5.2.dev40+g3354eac
H         2.27863742908173     0.83232052532788    -0.91104228549134
H        -0.69473712333829    -3.11834035421458    -0.74731401275869
H        -1.62477785150252     3.12682978647903     2.19447831677598
H        -1.89958359105336    -1.80079562105234     1.02756203279643
C         1.44302035950009     1.23586412943770    -0.25168846255152
C        -0.58901226091811    -0.28250894339984     0.46080015133634
N        -0.74353191194958     0.93399227444593     0.96306557595525
N         0.44755771673506     0.43369462745646     0.03700061039552
O        -1.14810225145612    -1.50126500753848     0.36412275860306
O        -0.13004471720195    -2.61068058512131    -0.05287872378362
P        -0.51538584061779     2.58821536478259     1.37048955018751
P         1.54271221074913     2.99388946024290     0.42427555499278
