45
Total charge: -1 ; Unpaired electrons: 0 ; Generated by mindlessgen-v0.4.1.dev46+g6bb74ea
H        2.7904654    1.8425818    1.0552375
H        2.0963786   -1.2692488    3.7895589
H        5.6859542    0.0155099   -0.2996706
H       -4.1954126   -1.3120850    1.7049187
H        1.2077918   -0.2494331   -3.7021252
H       -0.3919611   -0.6903160   -2.7245635
C        1.9806767   -2.0525759   -0.9794411
C       -2.5608969    2.3794434   -1.8971058
C        2.6340580   -1.2673485   -0.1532719
C       -1.5353340   -2.8622742    2.8342000
C        0.0495067    2.4870762    1.0704302
C       -2.5693543   -1.2022618   -0.7112798
C       -1.0957442   -2.2504750    3.9401207
N       -1.3417008    2.1034048   -1.7481003
N        0.9678334    0.6490498    2.6768198
N       -1.1805704   -0.5462290    1.4926589
N       -5.1930034    1.5168565   -1.6824983
N        2.6131606    1.7352197    0.0619135
N       -4.0465227   -0.4591064    1.1767761
N        4.9747657    0.7327693   -0.2262726
O       -0.9727298    2.0167457    1.5726499
O       -3.0823836   -1.5368937   -1.6748380
O       -0.9929644    0.9940649   -0.9534035
O       -1.8581217   -2.6085343    0.2131371
O        3.2350763    0.8524311    4.0207586
O       -0.4548860   -1.1158866    3.9480275
O        2.9537000   -1.6546355    1.1349736
O        3.2750951   -0.4998588    1.9114391
F       -0.0505669    3.7065359    0.5022567
F       -1.3774784   -2.7361463    5.1686013
P        1.5746474   -2.9180148   -2.3266810
P       -2.6986867    0.2054085    0.6243285
P        2.3458782   -0.0387253    3.2518283
P        3.4775972    0.3834369   -0.4977289
P       -0.7282799    0.3515643    2.9252297
S        0.2851112   -1.1926207   -3.7483147
S       -0.8668999   -2.1901737    1.3038457
S        1.7356180    4.8589363    2.3719398
Cl      -3.9061851    1.9109296   -1.0148037
Cl       3.0129173    0.5847749   -2.5421758
Cl       0.8235535    1.4285950   -0.2812882
Cl       1.3486012    2.7362314    2.4806627
Cl      -2.3214231   -4.3891721    2.8305487
Cl      -0.2739671   -3.7518169   -1.9948717
Br       3.3986025    5.0526916    0.9886035
