15

C           -3.92822833036995        1.96432093560546        0.62157575642424
C           -4.12348090129541        0.59558759251302        0.57376967392366
C           -3.03747857134253       -0.25907351392770        0.51942684687914
C           -1.74159802338474        0.23892621267053        0.51235642166947
H           -3.19667870717782       -1.32775033564467        0.48239910213616
C           -2.64080719756196        2.47160711796854        0.61409596611734
C           -1.55734176910219        1.61463498015929        0.55983863383019
H           -2.48025573405657        3.53952821534543        0.64999745894259
H           -4.77440551551237        2.63405350408406        0.66390613955572
H           -5.12565950974504        0.19165590433204        0.57921484920548
H            0.28242223890343       -0.28503647701491        0.98320934851746
H           -0.55378035137604        2.01638780449344        0.55334107071640
C           -0.56432434664417       -0.68420602079331        0.42876403999537
H           -0.81083301669431       -1.66824638917295        0.82046696760621
H           -0.26050639196391       -0.79926111783838       -0.61204235704981
